* NGSPICE file created from simd.ext - technology: sky130A

* Black-box entry subcircuit for sky130_fd_sc_hd__fill_2 abstract view
.subckt sky130_fd_sc_hd__fill_2 VGND VNB VPB VPWR
.ends

* Black-box entry subcircuit for sky130_fd_sc_hd__inv_2 abstract view
.subckt sky130_fd_sc_hd__inv_2 A VGND VNB VPB VPWR Y
.ends

* Black-box entry subcircuit for sky130_fd_sc_hd__a21oi_1 abstract view
.subckt sky130_fd_sc_hd__a21oi_1 A1 A2 B1 VGND VNB VPB VPWR Y
.ends

* Black-box entry subcircuit for sky130_fd_sc_hd__nand3_1 abstract view
.subckt sky130_fd_sc_hd__nand3_1 A B C VGND VNB VPB VPWR Y
.ends

* Black-box entry subcircuit for sky130_fd_sc_hd__nor2_1 abstract view
.subckt sky130_fd_sc_hd__nor2_1 A B VGND VNB VPB VPWR Y
.ends

* Black-box entry subcircuit for sky130_fd_sc_hd__clkbuf_4 abstract view
.subckt sky130_fd_sc_hd__clkbuf_4 A VGND VNB VPB VPWR X
.ends

* Black-box entry subcircuit for sky130_fd_sc_hd__decap_3 abstract view
.subckt sky130_fd_sc_hd__decap_3 VGND VNB VPB VPWR
.ends

* Black-box entry subcircuit for sky130_fd_sc_hd__mux2_1 abstract view
.subckt sky130_fd_sc_hd__mux2_1 A0 A1 S VGND VNB VPB VPWR X
.ends

* Black-box entry subcircuit for sky130_fd_sc_hd__fill_1 abstract view
.subckt sky130_fd_sc_hd__fill_1 VGND VNB VPB VPWR
.ends

* Black-box entry subcircuit for sky130_fd_sc_hd__decap_4 abstract view
.subckt sky130_fd_sc_hd__decap_4 VGND VNB VPB VPWR
.ends

* Black-box entry subcircuit for sky130_fd_sc_hd__decap_6 abstract view
.subckt sky130_fd_sc_hd__decap_6 VGND VNB VPB VPWR
.ends

* Black-box entry subcircuit for sky130_fd_sc_hd__tapvpwrvgnd_1 abstract view
.subckt sky130_fd_sc_hd__tapvpwrvgnd_1 VGND VPWR
.ends

* Black-box entry subcircuit for sky130_ef_sc_hd__decap_12 abstract view
.subckt sky130_ef_sc_hd__decap_12 VPWR VGND VPB VNB
.ends

* Black-box entry subcircuit for sky130_fd_sc_hd__or2_1 abstract view
.subckt sky130_fd_sc_hd__or2_1 A B VGND VNB VPB VPWR X
.ends

* Black-box entry subcircuit for sky130_fd_sc_hd__nand2_1 abstract view
.subckt sky130_fd_sc_hd__nand2_1 A B VGND VNB VPB VPWR Y
.ends

* Black-box entry subcircuit for sky130_fd_sc_hd__a211o_1 abstract view
.subckt sky130_fd_sc_hd__a211o_1 A1 A2 B1 C1 VGND VNB VPB VPWR X
.ends

* Black-box entry subcircuit for sky130_fd_sc_hd__decap_8 abstract view
.subckt sky130_fd_sc_hd__decap_8 VGND VNB VPB VPWR
.ends

* Black-box entry subcircuit for sky130_fd_sc_hd__dfxtp_1 abstract view
.subckt sky130_fd_sc_hd__dfxtp_1 CLK D VGND VNB VPB VPWR Q
.ends

* Black-box entry subcircuit for sky130_fd_sc_hd__nand2_2 abstract view
.subckt sky130_fd_sc_hd__nand2_2 A B VGND VNB VPB VPWR Y
.ends

* Black-box entry subcircuit for sky130_fd_sc_hd__o21ai_1 abstract view
.subckt sky130_fd_sc_hd__o21ai_1 A1 A2 B1 VGND VNB VPB VPWR Y
.ends

* Black-box entry subcircuit for sky130_fd_sc_hd__a22o_1 abstract view
.subckt sky130_fd_sc_hd__a22o_1 A1 A2 B1 B2 VGND VNB VPB VPWR X
.ends

* Black-box entry subcircuit for sky130_fd_sc_hd__o2bb2a_1 abstract view
.subckt sky130_fd_sc_hd__o2bb2a_1 A1_N A2_N B1 B2 VGND VNB VPB VPWR X
.ends

* Black-box entry subcircuit for sky130_fd_sc_hd__or4_1 abstract view
.subckt sky130_fd_sc_hd__or4_1 A B C D VGND VNB VPB VPWR X
.ends

* Black-box entry subcircuit for sky130_fd_sc_hd__nand2_4 abstract view
.subckt sky130_fd_sc_hd__nand2_4 A B VGND VNB VPB VPWR Y
.ends

* Black-box entry subcircuit for sky130_fd_sc_hd__clkbuf_1 abstract view
.subckt sky130_fd_sc_hd__clkbuf_1 A VGND VNB VPB VPWR X
.ends

* Black-box entry subcircuit for sky130_fd_sc_hd__a22o_2 abstract view
.subckt sky130_fd_sc_hd__a22o_2 A1 A2 B1 B2 VGND VNB VPB VPWR X
.ends

* Black-box entry subcircuit for sky130_fd_sc_hd__nand3_2 abstract view
.subckt sky130_fd_sc_hd__nand3_2 A B C VGND VNB VPB VPWR Y
.ends

* Black-box entry subcircuit for sky130_fd_sc_hd__o211a_1 abstract view
.subckt sky130_fd_sc_hd__o211a_1 A1 A2 B1 C1 VGND VNB VPB VPWR X
.ends

* Black-box entry subcircuit for sky130_fd_sc_hd__dfxtp_2 abstract view
.subckt sky130_fd_sc_hd__dfxtp_2 CLK D VGND VNB VPB VPWR Q
.ends

* Black-box entry subcircuit for sky130_fd_sc_hd__nand2b_1 abstract view
.subckt sky130_fd_sc_hd__nand2b_1 A_N B VGND VNB VPB VPWR Y
.ends

* Black-box entry subcircuit for sky130_fd_sc_hd__a21o_1 abstract view
.subckt sky130_fd_sc_hd__a21o_1 A1 A2 B1 VGND VNB VPB VPWR X
.ends

* Black-box entry subcircuit for sky130_fd_sc_hd__buf_4 abstract view
.subckt sky130_fd_sc_hd__buf_4 A VGND VNB VPB VPWR X
.ends

* Black-box entry subcircuit for sky130_fd_sc_hd__o21ai_2 abstract view
.subckt sky130_fd_sc_hd__o21ai_2 A1 A2 B1 VGND VNB VPB VPWR Y
.ends

* Black-box entry subcircuit for sky130_fd_sc_hd__o21a_1 abstract view
.subckt sky130_fd_sc_hd__o21a_1 A1 A2 B1 VGND VNB VPB VPWR X
.ends

* Black-box entry subcircuit for sky130_fd_sc_hd__or4_4 abstract view
.subckt sky130_fd_sc_hd__or4_4 A B C D VGND VNB VPB VPWR X
.ends

* Black-box entry subcircuit for sky130_fd_sc_hd__buf_2 abstract view
.subckt sky130_fd_sc_hd__buf_2 A VGND VNB VPB VPWR X
.ends

* Black-box entry subcircuit for sky130_fd_sc_hd__and2_1 abstract view
.subckt sky130_fd_sc_hd__and2_1 A B VGND VNB VPB VPWR X
.ends

* Black-box entry subcircuit for sky130_fd_sc_hd__a31o_1 abstract view
.subckt sky130_fd_sc_hd__a31o_1 A1 A2 A3 B1 VGND VNB VPB VPWR X
.ends

* Black-box entry subcircuit for sky130_fd_sc_hd__a221o_1 abstract view
.subckt sky130_fd_sc_hd__a221o_1 A1 A2 B1 B2 C1 VGND VNB VPB VPWR X
.ends

* Black-box entry subcircuit for sky130_fd_sc_hd__o211ai_1 abstract view
.subckt sky130_fd_sc_hd__o211ai_1 A1 A2 B1 C1 VGND VNB VPB VPWR Y
.ends

* Black-box entry subcircuit for sky130_fd_sc_hd__or3b_1 abstract view
.subckt sky130_fd_sc_hd__or3b_1 A B C_N VGND VNB VPB VPWR X
.ends

* Black-box entry subcircuit for sky130_fd_sc_hd__o22a_1 abstract view
.subckt sky130_fd_sc_hd__o22a_1 A1 A2 B1 B2 VGND VNB VPB VPWR X
.ends

* Black-box entry subcircuit for sky130_fd_sc_hd__and3_1 abstract view
.subckt sky130_fd_sc_hd__and3_1 A B C VGND VNB VPB VPWR X
.ends

* Black-box entry subcircuit for sky130_fd_sc_hd__diode_2 abstract view
.subckt sky130_fd_sc_hd__diode_2 DIODE VGND VNB VPB VPWR
.ends

* Black-box entry subcircuit for sky130_fd_sc_hd__and2_2 abstract view
.subckt sky130_fd_sc_hd__and2_2 A B VGND VNB VPB VPWR X
.ends

* Black-box entry subcircuit for sky130_fd_sc_hd__buf_1 abstract view
.subckt sky130_fd_sc_hd__buf_1 A VGND VNB VPB VPWR X
.ends

* Black-box entry subcircuit for sky130_fd_sc_hd__a221o_2 abstract view
.subckt sky130_fd_sc_hd__a221o_2 A1 A2 B1 B2 C1 VGND VNB VPB VPWR X
.ends

* Black-box entry subcircuit for sky130_fd_sc_hd__buf_6 abstract view
.subckt sky130_fd_sc_hd__buf_6 A VGND VNB VPB VPWR X
.ends

* Black-box entry subcircuit for sky130_fd_sc_hd__o221ai_4 abstract view
.subckt sky130_fd_sc_hd__o221ai_4 A1 A2 B1 B2 C1 VGND VNB VPB VPWR Y
.ends

* Black-box entry subcircuit for sky130_fd_sc_hd__o2bb2a_2 abstract view
.subckt sky130_fd_sc_hd__o2bb2a_2 A1_N A2_N B1 B2 VGND VNB VPB VPWR X
.ends

* Black-box entry subcircuit for sky130_fd_sc_hd__clkbuf_16 abstract view
.subckt sky130_fd_sc_hd__clkbuf_16 A VGND VNB VPB VPWR X
.ends

* Black-box entry subcircuit for sky130_fd_sc_hd__dlymetal6s2s_1 abstract view
.subckt sky130_fd_sc_hd__dlymetal6s2s_1 A VGND VNB VPB VPWR X
.ends

* Black-box entry subcircuit for sky130_fd_sc_hd__xor2_1 abstract view
.subckt sky130_fd_sc_hd__xor2_1 A B VGND VNB VPB VPWR X
.ends

* Black-box entry subcircuit for sky130_fd_sc_hd__a21bo_4 abstract view
.subckt sky130_fd_sc_hd__a21bo_4 A1 A2 B1_N VGND VNB VPB VPWR X
.ends

* Black-box entry subcircuit for sky130_fd_sc_hd__nand3b_1 abstract view
.subckt sky130_fd_sc_hd__nand3b_1 A_N B C VGND VNB VPB VPWR Y
.ends

* Black-box entry subcircuit for sky130_fd_sc_hd__or3_1 abstract view
.subckt sky130_fd_sc_hd__or3_1 A B C VGND VNB VPB VPWR X
.ends

* Black-box entry subcircuit for sky130_fd_sc_hd__a21boi_1 abstract view
.subckt sky130_fd_sc_hd__a21boi_1 A1 A2 B1_N VGND VNB VPB VPWR Y
.ends

* Black-box entry subcircuit for sky130_fd_sc_hd__clkbuf_8 abstract view
.subckt sky130_fd_sc_hd__clkbuf_8 A VGND VNB VPB VPWR X
.ends

* Black-box entry subcircuit for sky130_fd_sc_hd__a21o_2 abstract view
.subckt sky130_fd_sc_hd__a21o_2 A1 A2 B1 VGND VNB VPB VPWR X
.ends

* Black-box entry subcircuit for sky130_fd_sc_hd__or4_2 abstract view
.subckt sky130_fd_sc_hd__or4_2 A B C D VGND VNB VPB VPWR X
.ends

* Black-box entry subcircuit for sky130_fd_sc_hd__a311o_2 abstract view
.subckt sky130_fd_sc_hd__a311o_2 A1 A2 A3 B1 C1 VGND VNB VPB VPWR X
.ends

* Black-box entry subcircuit for sky130_fd_sc_hd__a2111o_1 abstract view
.subckt sky130_fd_sc_hd__a2111o_1 A1 A2 B1 C1 D1 VGND VNB VPB VPWR X
.ends

* Black-box entry subcircuit for sky130_fd_sc_hd__a311o_1 abstract view
.subckt sky130_fd_sc_hd__a311o_1 A1 A2 A3 B1 C1 VGND VNB VPB VPWR X
.ends

* Black-box entry subcircuit for sky130_fd_sc_hd__or3_2 abstract view
.subckt sky130_fd_sc_hd__or3_2 A B C VGND VNB VPB VPWR X
.ends

* Black-box entry subcircuit for sky130_fd_sc_hd__clkinv_4 abstract view
.subckt sky130_fd_sc_hd__clkinv_4 A VGND VNB VPB VPWR Y
.ends

* Black-box entry subcircuit for sky130_fd_sc_hd__nor2_2 abstract view
.subckt sky130_fd_sc_hd__nor2_2 A B VGND VNB VPB VPWR Y
.ends

* Black-box entry subcircuit for sky130_fd_sc_hd__a21o_4 abstract view
.subckt sky130_fd_sc_hd__a21o_4 A1 A2 B1 VGND VNB VPB VPWR X
.ends

* Black-box entry subcircuit for sky130_fd_sc_hd__a21bo_1 abstract view
.subckt sky130_fd_sc_hd__a21bo_1 A1 A2 B1_N VGND VNB VPB VPWR X
.ends

* Black-box entry subcircuit for sky130_fd_sc_hd__inv_6 abstract view
.subckt sky130_fd_sc_hd__inv_6 A VGND VNB VPB VPWR Y
.ends

* Black-box entry subcircuit for sky130_fd_sc_hd__o21bai_1 abstract view
.subckt sky130_fd_sc_hd__o21bai_1 A1 A2 B1_N VGND VNB VPB VPWR Y
.ends

* Black-box entry subcircuit for sky130_fd_sc_hd__o31ai_4 abstract view
.subckt sky130_fd_sc_hd__o31ai_4 A1 A2 A3 B1 VGND VNB VPB VPWR Y
.ends

* Black-box entry subcircuit for sky130_fd_sc_hd__o221a_1 abstract view
.subckt sky130_fd_sc_hd__o221a_1 A1 A2 B1 B2 C1 VGND VNB VPB VPWR X
.ends

* Black-box entry subcircuit for sky130_fd_sc_hd__o311a_1 abstract view
.subckt sky130_fd_sc_hd__o311a_1 A1 A2 A3 B1 C1 VGND VNB VPB VPWR X
.ends

* Black-box entry subcircuit for sky130_fd_sc_hd__mux2_4 abstract view
.subckt sky130_fd_sc_hd__mux2_4 A0 A1 S VGND VNB VPB VPWR X
.ends

* Black-box entry subcircuit for sky130_fd_sc_hd__and2b_1 abstract view
.subckt sky130_fd_sc_hd__and2b_1 A_N B VGND VNB VPB VPWR X
.ends

* Black-box entry subcircuit for sky130_fd_sc_hd__nand2_8 abstract view
.subckt sky130_fd_sc_hd__nand2_8 A B VGND VNB VPB VPWR Y
.ends

* Black-box entry subcircuit for sky130_fd_sc_hd__a22oi_4 abstract view
.subckt sky130_fd_sc_hd__a22oi_4 A1 A2 B1 B2 VGND VNB VPB VPWR Y
.ends

* Black-box entry subcircuit for sky130_fd_sc_hd__xnor2_1 abstract view
.subckt sky130_fd_sc_hd__xnor2_1 A B VGND VNB VPB VPWR Y
.ends

* Black-box entry subcircuit for sky130_fd_sc_hd__a41o_1 abstract view
.subckt sky130_fd_sc_hd__a41o_1 A1 A2 A3 A4 B1 VGND VNB VPB VPWR X
.ends

* Black-box entry subcircuit for sky130_fd_sc_hd__a21oi_2 abstract view
.subckt sky130_fd_sc_hd__a21oi_2 A1 A2 B1 VGND VNB VPB VPWR Y
.ends

* Black-box entry subcircuit for sky130_fd_sc_hd__o21ai_4 abstract view
.subckt sky130_fd_sc_hd__o21ai_4 A1 A2 B1 VGND VNB VPB VPWR Y
.ends

* Black-box entry subcircuit for sky130_fd_sc_hd__and4_1 abstract view
.subckt sky130_fd_sc_hd__and4_1 A B C D VGND VNB VPB VPWR X
.ends

* Black-box entry subcircuit for sky130_fd_sc_hd__nor2_4 abstract view
.subckt sky130_fd_sc_hd__nor2_4 A B VGND VNB VPB VPWR Y
.ends

* Black-box entry subcircuit for sky130_fd_sc_hd__a2bb2o_1 abstract view
.subckt sky130_fd_sc_hd__a2bb2o_1 A1_N A2_N B1 B2 VGND VNB VPB VPWR X
.ends

* Black-box entry subcircuit for sky130_fd_sc_hd__o22a_4 abstract view
.subckt sky130_fd_sc_hd__o22a_4 A1 A2 B1 B2 VGND VNB VPB VPWR X
.ends

* Black-box entry subcircuit for sky130_fd_sc_hd__a32o_1 abstract view
.subckt sky130_fd_sc_hd__a32o_1 A1 A2 A3 B1 B2 VGND VNB VPB VPWR X
.ends

* Black-box entry subcircuit for sky130_fd_sc_hd__xor2_2 abstract view
.subckt sky130_fd_sc_hd__xor2_2 A B VGND VNB VPB VPWR X
.ends

* Black-box entry subcircuit for sky130_fd_sc_hd__dfxtp_4 abstract view
.subckt sky130_fd_sc_hd__dfxtp_4 CLK D VGND VNB VPB VPWR Q
.ends

* Black-box entry subcircuit for sky130_fd_sc_hd__inv_4 abstract view
.subckt sky130_fd_sc_hd__inv_4 A VGND VNB VPB VPWR Y
.ends

* Black-box entry subcircuit for sky130_fd_sc_hd__clkbuf_2 abstract view
.subckt sky130_fd_sc_hd__clkbuf_2 A VGND VNB VPB VPWR X
.ends

* Black-box entry subcircuit for sky130_fd_sc_hd__o22ai_1 abstract view
.subckt sky130_fd_sc_hd__o22ai_1 A1 A2 B1 B2 VGND VNB VPB VPWR Y
.ends

* Black-box entry subcircuit for sky130_fd_sc_hd__or2b_1 abstract view
.subckt sky130_fd_sc_hd__or2b_1 A B_N VGND VNB VPB VPWR X
.ends

* Black-box entry subcircuit for sky130_fd_sc_hd__a221o_4 abstract view
.subckt sky130_fd_sc_hd__a221o_4 A1 A2 B1 B2 C1 VGND VNB VPB VPWR X
.ends

* Black-box entry subcircuit for sky130_fd_sc_hd__a22o_4 abstract view
.subckt sky130_fd_sc_hd__a22o_4 A1 A2 B1 B2 VGND VNB VPB VPWR X
.ends

* Black-box entry subcircuit for sky130_fd_sc_hd__and4_2 abstract view
.subckt sky130_fd_sc_hd__and4_2 A B C D VGND VNB VPB VPWR X
.ends

* Black-box entry subcircuit for sky130_fd_sc_hd__o2111ai_4 abstract view
.subckt sky130_fd_sc_hd__o2111ai_4 A1 A2 B1 C1 D1 VGND VNB VPB VPWR Y
.ends

* Black-box entry subcircuit for sky130_fd_sc_hd__a2bb2o_2 abstract view
.subckt sky130_fd_sc_hd__a2bb2o_2 A1_N A2_N B1 B2 VGND VNB VPB VPWR X
.ends

* Black-box entry subcircuit for sky130_fd_sc_hd__nor3_4 abstract view
.subckt sky130_fd_sc_hd__nor3_4 A B C VGND VNB VPB VPWR Y
.ends

* Black-box entry subcircuit for sky130_fd_sc_hd__o31ai_1 abstract view
.subckt sky130_fd_sc_hd__o31ai_1 A1 A2 A3 B1 VGND VNB VPB VPWR Y
.ends

* Black-box entry subcircuit for sky130_fd_sc_hd__nand3b_2 abstract view
.subckt sky130_fd_sc_hd__nand3b_2 A_N B C VGND VNB VPB VPWR Y
.ends

* Black-box entry subcircuit for sky130_fd_sc_hd__a31o_2 abstract view
.subckt sky130_fd_sc_hd__a31o_2 A1 A2 A3 B1 VGND VNB VPB VPWR X
.ends

* Black-box entry subcircuit for sky130_fd_sc_hd__o31a_2 abstract view
.subckt sky130_fd_sc_hd__o31a_2 A1 A2 A3 B1 VGND VNB VPB VPWR X
.ends

* Black-box entry subcircuit for sky130_fd_sc_hd__a21oi_4 abstract view
.subckt sky130_fd_sc_hd__a21oi_4 A1 A2 B1 VGND VNB VPB VPWR Y
.ends

* Black-box entry subcircuit for sky130_fd_sc_hd__a211oi_1 abstract view
.subckt sky130_fd_sc_hd__a211oi_1 A1 A2 B1 C1 VGND VNB VPB VPWR Y
.ends

* Black-box entry subcircuit for sky130_fd_sc_hd__a21bo_2 abstract view
.subckt sky130_fd_sc_hd__a21bo_2 A1 A2 B1_N VGND VNB VPB VPWR X
.ends

* Black-box entry subcircuit for sky130_fd_sc_hd__and3_2 abstract view
.subckt sky130_fd_sc_hd__and3_2 A B C VGND VNB VPB VPWR X
.ends

* Black-box entry subcircuit for sky130_fd_sc_hd__o22a_2 abstract view
.subckt sky130_fd_sc_hd__o22a_2 A1 A2 B1 B2 VGND VNB VPB VPWR X
.ends

* Black-box entry subcircuit for sky130_fd_sc_hd__xor2_4 abstract view
.subckt sky130_fd_sc_hd__xor2_4 A B VGND VNB VPB VPWR X
.ends

* Black-box entry subcircuit for sky130_fd_sc_hd__o31ai_2 abstract view
.subckt sky130_fd_sc_hd__o31ai_2 A1 A2 A3 B1 VGND VNB VPB VPWR Y
.ends

* Black-box entry subcircuit for sky130_fd_sc_hd__o22ai_2 abstract view
.subckt sky130_fd_sc_hd__o22ai_2 A1 A2 B1 B2 VGND VNB VPB VPWR Y
.ends

* Black-box entry subcircuit for sky130_fd_sc_hd__o221ai_2 abstract view
.subckt sky130_fd_sc_hd__o221ai_2 A1 A2 B1 B2 C1 VGND VNB VPB VPWR Y
.ends

* Black-box entry subcircuit for sky130_fd_sc_hd__o31a_1 abstract view
.subckt sky130_fd_sc_hd__o31a_1 A1 A2 A3 B1 VGND VNB VPB VPWR X
.ends

* Black-box entry subcircuit for sky130_fd_sc_hd__o32a_2 abstract view
.subckt sky130_fd_sc_hd__o32a_2 A1 A2 A3 B1 B2 VGND VNB VPB VPWR X
.ends

* Black-box entry subcircuit for sky130_fd_sc_hd__a21boi_2 abstract view
.subckt sky130_fd_sc_hd__a21boi_2 A1 A2 B1_N VGND VNB VPB VPWR Y
.ends

* Black-box entry subcircuit for sky130_fd_sc_hd__mux2_2 abstract view
.subckt sky130_fd_sc_hd__mux2_2 A0 A1 S VGND VNB VPB VPWR X
.ends

* Black-box entry subcircuit for sky130_fd_sc_hd__or2_2 abstract view
.subckt sky130_fd_sc_hd__or2_2 A B VGND VNB VPB VPWR X
.ends

* Black-box entry subcircuit for sky130_fd_sc_hd__clkinvlp_2 abstract view
.subckt sky130_fd_sc_hd__clkinvlp_2 A VGND VNB VPB VPWR Y
.ends

* Black-box entry subcircuit for sky130_fd_sc_hd__a32o_2 abstract view
.subckt sky130_fd_sc_hd__a32o_2 A1 A2 A3 B1 B2 VGND VNB VPB VPWR X
.ends

* Black-box entry subcircuit for sky130_fd_sc_hd__or2b_2 abstract view
.subckt sky130_fd_sc_hd__or2b_2 A B_N VGND VNB VPB VPWR X
.ends

* Black-box entry subcircuit for sky130_fd_sc_hd__buf_8 abstract view
.subckt sky130_fd_sc_hd__buf_8 A VGND VNB VPB VPWR X
.ends

* Black-box entry subcircuit for sky130_fd_sc_hd__a221oi_2 abstract view
.subckt sky130_fd_sc_hd__a221oi_2 A1 A2 B1 B2 C1 VGND VNB VPB VPWR Y
.ends

* Black-box entry subcircuit for sky130_fd_sc_hd__a31o_4 abstract view
.subckt sky130_fd_sc_hd__a31o_4 A1 A2 A3 B1 VGND VNB VPB VPWR X
.ends

* Black-box entry subcircuit for sky130_fd_sc_hd__nor2b_1 abstract view
.subckt sky130_fd_sc_hd__nor2b_1 A B_N VGND VNB VPB VPWR Y
.ends

* Black-box entry subcircuit for sky130_fd_sc_hd__o221ai_1 abstract view
.subckt sky130_fd_sc_hd__o221ai_1 A1 A2 B1 B2 C1 VGND VNB VPB VPWR Y
.ends

* Black-box entry subcircuit for sky130_fd_sc_hd__a221oi_4 abstract view
.subckt sky130_fd_sc_hd__a221oi_4 A1 A2 B1 B2 C1 VGND VNB VPB VPWR Y
.ends

* Black-box entry subcircuit for sky130_fd_sc_hd__o311a_4 abstract view
.subckt sky130_fd_sc_hd__o311a_4 A1 A2 A3 B1 C1 VGND VNB VPB VPWR X
.ends

* Black-box entry subcircuit for sky130_fd_sc_hd__nand3_4 abstract view
.subckt sky130_fd_sc_hd__nand3_4 A B C VGND VNB VPB VPWR Y
.ends

* Black-box entry subcircuit for sky130_fd_sc_hd__a32o_4 abstract view
.subckt sky130_fd_sc_hd__a32o_4 A1 A2 A3 B1 B2 VGND VNB VPB VPWR X
.ends

* Black-box entry subcircuit for sky130_fd_sc_hd__o211ai_2 abstract view
.subckt sky130_fd_sc_hd__o211ai_2 A1 A2 B1 C1 VGND VNB VPB VPWR Y
.ends

* Black-box entry subcircuit for sky130_fd_sc_hd__xnor2_4 abstract view
.subckt sky130_fd_sc_hd__xnor2_4 A B VGND VNB VPB VPWR Y
.ends

* Black-box entry subcircuit for sky130_fd_sc_hd__a31oi_1 abstract view
.subckt sky130_fd_sc_hd__a31oi_1 A1 A2 A3 B1 VGND VNB VPB VPWR Y
.ends

* Black-box entry subcircuit for sky130_fd_sc_hd__nor2_8 abstract view
.subckt sky130_fd_sc_hd__nor2_8 A B VGND VNB VPB VPWR Y
.ends

* Black-box entry subcircuit for sky130_fd_sc_hd__a221oi_1 abstract view
.subckt sky130_fd_sc_hd__a221oi_1 A1 A2 B1 B2 C1 VGND VNB VPB VPWR Y
.ends

* Black-box entry subcircuit for sky130_fd_sc_hd__a2111oi_1 abstract view
.subckt sky130_fd_sc_hd__a2111oi_1 A1 A2 B1 C1 D1 VGND VNB VPB VPWR Y
.ends

* Black-box entry subcircuit for sky130_fd_sc_hd__o2111a_1 abstract view
.subckt sky130_fd_sc_hd__o2111a_1 A1 A2 B1 C1 D1 VGND VNB VPB VPWR X
.ends

* Black-box entry subcircuit for sky130_fd_sc_hd__a211oi_2 abstract view
.subckt sky130_fd_sc_hd__a211oi_2 A1 A2 B1 C1 VGND VNB VPB VPWR Y
.ends

* Black-box entry subcircuit for sky130_fd_sc_hd__nand2b_4 abstract view
.subckt sky130_fd_sc_hd__nand2b_4 A_N B VGND VNB VPB VPWR Y
.ends

* Black-box entry subcircuit for sky130_fd_sc_hd__and3b_1 abstract view
.subckt sky130_fd_sc_hd__and3b_1 A_N B C VGND VNB VPB VPWR X
.ends

* Black-box entry subcircuit for sky130_fd_sc_hd__o21bai_2 abstract view
.subckt sky130_fd_sc_hd__o21bai_2 A1 A2 B1_N VGND VNB VPB VPWR Y
.ends

* Black-box entry subcircuit for sky130_fd_sc_hd__nor3_1 abstract view
.subckt sky130_fd_sc_hd__nor3_1 A B C VGND VNB VPB VPWR Y
.ends

* Black-box entry subcircuit for sky130_fd_sc_hd__and4b_1 abstract view
.subckt sky130_fd_sc_hd__and4b_1 A_N B C D VGND VNB VPB VPWR X
.ends

* Black-box entry subcircuit for sky130_fd_sc_hd__or3_4 abstract view
.subckt sky130_fd_sc_hd__or3_4 A B C VGND VNB VPB VPWR X
.ends

.subckt simd VGND VPWR clk data_R data_W data_address[0] data_address[1] data_address[2]
+ data_address[3] data_address[4] data_address[5] data_address[6] data_address[7]
+ data_address[8] data_address[9] data_in[0] data_in[10] data_in[11] data_in[12] data_in[13]
+ data_in[14] data_in[15] data_in[1] data_in[2] data_in[3] data_in[4] data_in[5] data_in[6]
+ data_in[7] data_in[8] data_in[9] data_out[0] data_out[10] data_out[11] data_out[12]
+ data_out[13] data_out[14] data_out[15] data_out[1] data_out[2] data_out[3] data_out[4]
+ data_out[5] data_out[6] data_out[7] data_out[8] data_out[9] done instruction_address[0]
+ instruction_address[1] instruction_address[2] instruction_address[3] instruction_address[4]
+ instruction_address[5] instruction_address[6] instruction_address[7] instruction_address[8]
+ instruction_address[9] instruction_in[0] instruction_in[10] instruction_in[11] instruction_in[12]
+ instruction_in[13] instruction_in[14] instruction_in[15] instruction_in[16] instruction_in[17]
+ instruction_in[1] instruction_in[2] instruction_in[3] instruction_in[4] instruction_in[5]
+ instruction_in[6] instruction_in[7] instruction_in[8] instruction_in[9] rst
XFILLER_0_94_66 VGND VGND VPWR VPWR sky130_fd_sc_hd__fill_2
X_06883_ result_reg_mac\[12\] VGND VGND VPWR VPWR _01006_ sky130_fd_sc_hd__inv_2
X_09671_ Oset\[3\]\[6\] _03024_ _03026_ VGND VGND VPWR VPWR _03580_ sky130_fd_sc_hd__a21oi_1
XFILLER_0_27_82 VGND VGND VPWR VPWR sky130_fd_sc_hd__fill_2
X_08622_ _02532_ _02535_ _02536_ VGND VGND VPWR VPWR _02537_ sky130_fd_sc_hd__nand3_1
X_08553_ _02470_ H\[0\]\[13\] VGND VGND VPWR VPWR _02471_ sky130_fd_sc_hd__nor2_1
XFILLER_0_49_314 VGND VGND VPWR VPWR sky130_fd_sc_hd__fill_2
X_07504_ _01568_ VGND VGND VPWR VPWR _01569_ sky130_fd_sc_hd__clkbuf_4
XFILLER_0_76_111 VGND VGND VPWR VPWR sky130_fd_sc_hd__decap_3
X_08484_ _02404_ net49 _02169_ VGND VGND VPWR VPWR _02405_ sky130_fd_sc_hd__mux2_1
XFILLER_0_92_626 VGND VGND VPWR VPWR sky130_fd_sc_hd__fill_1
X_07435_ result_reg_mac\[14\] _01215_ VGND VGND VPWR VPWR _01506_ sky130_fd_sc_hd__nor2_1
XFILLER_0_9_411 VGND VGND VPWR VPWR sky130_fd_sc_hd__decap_3
XFILLER_0_76_188 VGND VGND VPWR VPWR sky130_fd_sc_hd__fill_2
XFILLER_0_45_531 VGND VGND VPWR VPWR sky130_fd_sc_hd__decap_4
XFILLER_0_9_455 VGND VGND VPWR VPWR sky130_fd_sc_hd__decap_6
XFILLER_0_17_222 VGND VGND VPWR VPWR sky130_fd_sc_hd__fill_2
X_07366_ result_reg_not\[11\] _01439_ _01167_ VGND VGND VPWR VPWR _01440_ sky130_fd_sc_hd__mux2_1
XTAP_TAPCELL_ROW_79_1100 VGND VPWR sky130_fd_sc_hd__tapvpwrvgnd_1
XFILLER_0_17_244 VPWR VGND VPWR VGND sky130_ef_sc_hd__decap_12
X_07297_ _00881_ _01374_ _01182_ VGND VGND VPWR VPWR _01375_ sky130_fd_sc_hd__mux2_1
XFILLER_0_60_512 VGND VGND VPWR VPWR sky130_fd_sc_hd__decap_4
X_06317_ LC\[5\] _06277_ VGND VGND VPWR VPWR _06278_ sky130_fd_sc_hd__nor2_1
X_09105_ _02556_ _03015_ VGND VGND VPWR VPWR _03016_ sky130_fd_sc_hd__or2_1
XFILLER_0_103_625 VGND VGND VPWR VPWR sky130_fd_sc_hd__fill_2
XFILLER_0_103_614 VGND VGND VPWR VPWR sky130_fd_sc_hd__fill_2
X_09036_ _02947_ _02237_ VGND VGND VPWR VPWR _02948_ sky130_fd_sc_hd__nand2_1
XFILLER_0_102_124 VPWR VGND VPWR VGND sky130_ef_sc_hd__decap_12
XFILLER_0_13_483 VGND VGND VPWR VPWR sky130_fd_sc_hd__decap_3
X_09938_ _03157_ Oset\[3\]\[9\] _03135_ _03844_ VGND VGND VPWR VPWR _03845_ sky130_fd_sc_hd__a211o_1
XFILLER_0_99_236 VGND VGND VPWR VPWR sky130_fd_sc_hd__fill_1
XFILLER_0_99_214 VGND VGND VPWR VPWR sky130_fd_sc_hd__decap_8
X_09869_ Qset\[3\]\[8\] _03341_ VGND VGND VPWR VPWR _03776_ sky130_fd_sc_hd__nor2_1
X_12880_ clknet_leaf_20_clk _00323_ VGND VGND VPWR VPWR result_reg_Lshift\[15\] sky130_fd_sc_hd__dfxtp_1
X_11900_ _02790_ _02793_ VGND VGND VPWR VPWR _05750_ sky130_fd_sc_hd__nand2_2
XFILLER_0_68_623 VGND VGND VPWR VPWR sky130_fd_sc_hd__decap_4
X_11831_ _05699_ VGND VGND VPWR VPWR _00290_ sky130_fd_sc_hd__inv_2
XFILLER_0_67_122 VPWR VGND VPWR VGND sky130_ef_sc_hd__decap_12
X_11762_ _05627_ _04642_ VGND VGND VPWR VPWR _05651_ sky130_fd_sc_hd__nor2_1
XFILLER_0_23_29 VGND VGND VPWR VPWR sky130_fd_sc_hd__fill_2
XFILLER_0_95_486 VGND VGND VPWR VPWR sky130_fd_sc_hd__decap_3
X_11693_ _05554_ _04830_ _05592_ VGND VGND VPWR VPWR _05593_ sky130_fd_sc_hd__nand3_1
X_10713_ Qset\[1\]\[10\] _03791_ VGND VGND VPWR VPWR _04618_ sky130_fd_sc_hd__nand2_1
X_10644_ _04105_ Qset\[3\]\[10\] _04045_ _04548_ VGND VGND VPWR VPWR _04549_ sky130_fd_sc_hd__a211o_1
XTAP_TAPCELL_ROW_11_345 VGND VPWR sky130_fd_sc_hd__tapvpwrvgnd_1
X_10575_ _04282_ Oset\[2\]\[10\] _03345_ VGND VGND VPWR VPWR _04480_ sky130_fd_sc_hd__o21ai_1
X_12314_ _06055_ _00930_ VGND VGND VPWR VPWR _06076_ sky130_fd_sc_hd__nand2_1
XFILLER_0_2_108 VGND VGND VPWR VPWR sky130_fd_sc_hd__decap_3
XFILLER_0_23_225 VGND VGND VPWR VPWR sky130_fd_sc_hd__decap_4
XTAP_TAPCELL_ROW_97_1299 VGND VPWR sky130_fd_sc_hd__tapvpwrvgnd_1
XFILLER_0_23_258 VPWR VGND VPWR VGND sky130_ef_sc_hd__decap_12
X_12245_ _06031_ VGND VGND VPWR VPWR _06032_ sky130_fd_sc_hd__clkbuf_4
X_12176_ _05974_ _00524_ _05937_ _05975_ VGND VGND VPWR VPWR _05976_ sky130_fd_sc_hd__a22o_1
X_11127_ _05014_ _05012_ _05013_ _04954_ VGND VGND VPWR VPWR _05030_ sky130_fd_sc_hd__o2bb2a_1
X_11058_ _04881_ _02455_ VGND VGND VPWR VPWR _04961_ sky130_fd_sc_hd__nor2_1
X_10009_ _03912_ VGND VGND VPWR VPWR _03916_ sky130_fd_sc_hd__inv_2
XTAP_TAPCELL_ROW_47_743 VGND VPWR sky130_fd_sc_hd__tapvpwrvgnd_1
XTAP_TAPCELL_ROW_19_434 VGND VPWR sky130_fd_sc_hd__tapvpwrvgnd_1
XFILLER_0_98_280 VGND VGND VPWR VPWR sky130_fd_sc_hd__fill_1
XFILLER_0_58_133 VGND VGND VPWR VPWR sky130_fd_sc_hd__decap_6
XFILLER_0_58_166 VGND VGND VPWR VPWR sky130_fd_sc_hd__decap_8
XFILLER_0_46_328 VPWR VGND VPWR VGND sky130_ef_sc_hd__decap_12
XFILLER_0_13_51 VGND VGND VPWR VPWR sky130_fd_sc_hd__fill_2
X_07220_ _00770_ _01267_ _01263_ _01301_ VGND VGND VPWR VPWR _01302_ sky130_fd_sc_hd__a211o_1
XFILLER_0_73_147 VGND VGND VPWR VPWR sky130_fd_sc_hd__decap_4
X_07151_ _00528_ _00631_ _00634_ _01171_ VGND VGND VPWR VPWR _01236_ sky130_fd_sc_hd__or4_1
XFILLER_0_54_350 VPWR VGND VPWR VGND sky130_ef_sc_hd__decap_12
XFILLER_0_80_7 VGND VGND VPWR VPWR sky130_fd_sc_hd__fill_2
XFILLER_0_54_383 VGND VGND VPWR VPWR sky130_fd_sc_hd__decap_6
XFILLER_0_14_236 VPWR VGND VPWR VGND sky130_ef_sc_hd__decap_12
XFILLER_0_89_88 VGND VGND VPWR VPWR sky130_fd_sc_hd__decap_4
X_07082_ _01163_ _00654_ VGND VGND VPWR VPWR _01167_ sky130_fd_sc_hd__nand2_4
XTAP_TAPCELL_ROW_74_1041 VGND VPWR sky130_fd_sc_hd__tapvpwrvgnd_1
XFILLER_0_10_475 VGND VGND VPWR VPWR sky130_fd_sc_hd__fill_1
XFILLER_0_10_464 VGND VGND VPWR VPWR sky130_fd_sc_hd__fill_1
X_07984_ _02004_ VGND VGND VPWR VPWR _00138_ sky130_fd_sc_hd__clkbuf_1
X_06935_ result_reg_mac\[14\] VGND VGND VPWR VPWR _01056_ sky130_fd_sc_hd__inv_2
X_09723_ _03498_ Oset\[1\]\[7\] _02991_ _03630_ VGND VGND VPWR VPWR _03631_ sky130_fd_sc_hd__a211o_1
X_06866_ _00989_ _00553_ VGND VGND VPWR VPWR _00990_ sky130_fd_sc_hd__or2_1
X_09654_ _03560_ _03537_ _03540_ VGND VGND VPWR VPWR _03563_ sky130_fd_sc_hd__nand3_1
X_08605_ _02520_ net54 _02169_ VGND VGND VPWR VPWR _02521_ sky130_fd_sc_hd__mux2_1
X_06797_ _00922_ _00923_ _00643_ VGND VGND VPWR VPWR _00924_ sky130_fd_sc_hd__mux2_1
X_09585_ _02302_ _00584_ VGND VGND VPWR VPWR _03494_ sky130_fd_sc_hd__nand2_1
X_08536_ _02397_ Qset\[3\]\[13\] _02374_ _02453_ VGND VGND VPWR VPWR _02454_ sky130_fd_sc_hd__a211o_1
XFILLER_0_49_199 VGND VGND VPWR VPWR sky130_fd_sc_hd__decap_6
X_08467_ _02356_ _02387_ VGND VGND VPWR VPWR _02388_ sky130_fd_sc_hd__nor2_1
X_07418_ _01276_ _01476_ _01488_ _01489_ VGND VGND VPWR VPWR _01490_ sky130_fd_sc_hd__a22o_2
X_08398_ _02319_ Oset\[3\]\[7\] _02254_ _02321_ VGND VGND VPWR VPWR _02322_ sky130_fd_sc_hd__a211o_1
X_07349_ net2 _01255_ VGND VGND VPWR VPWR _01424_ sky130_fd_sc_hd__or2_1
XFILLER_0_33_501 VGND VGND VPWR VPWR sky130_fd_sc_hd__decap_3
X_10360_ _04204_ _04265_ VGND VGND VPWR VPWR _04266_ sky130_fd_sc_hd__nor2_1
X_10291_ _04195_ _04196_ _04197_ VGND VGND VPWR VPWR _04198_ sky130_fd_sc_hd__nand3_2
X_09019_ _02586_ Qset\[1\]\[3\] VGND VGND VPWR VPWR _02931_ sky130_fd_sc_hd__nand2_1
X_12030_ result_reg_Rshift\[6\] _05848_ _05857_ _05858_ VGND VGND VPWR VPWR _00330_
+ sky130_fd_sc_hd__o211a_1
X_12932_ clknet_leaf_22_clk _00375_ VGND VGND VPWR VPWR result_reg_not\[3\] sky130_fd_sc_hd__dfxtp_1
X_12863_ clknet_leaf_10_clk _00306_ VGND VGND VPWR VPWR result_reg_mac\[14\] sky130_fd_sc_hd__dfxtp_2
XTAP_TAPCELL_ROW_44_713 VGND VPWR sky130_fd_sc_hd__tapvpwrvgnd_1
XTAP_TAPCELL_ROW_16_404 VGND VPWR sky130_fd_sc_hd__tapvpwrvgnd_1
XFILLER_0_68_464 VGND VGND VPWR VPWR sky130_fd_sc_hd__decap_4
X_11814_ _05688_ VGND VGND VPWR VPWR _00284_ sky130_fd_sc_hd__inv_2
X_12794_ clknet_leaf_44_clk _00237_ VGND VGND VPWR VPWR net63 sky130_fd_sc_hd__dfxtp_1
X_11745_ _00788_ _05631_ _05634_ _05639_ VGND VGND VPWR VPWR _05640_ sky130_fd_sc_hd__a211o_1
XFILLER_0_28_339 VGND VGND VPWR VPWR sky130_fd_sc_hd__decap_3
XTAP_TAPCELL_ROW_99_1317 VGND VPWR sky130_fd_sc_hd__tapvpwrvgnd_1
XFILLER_0_83_467 VGND VGND VPWR VPWR sky130_fd_sc_hd__fill_2
XFILLER_0_50_27 VGND VGND VPWR VPWR sky130_fd_sc_hd__fill_1
XFILLER_0_83_489 VGND VGND VPWR VPWR sky130_fd_sc_hd__fill_1
XFILLER_0_55_169 VPWR VGND VPWR VGND sky130_ef_sc_hd__decap_12
X_11676_ _05517_ _02577_ VGND VGND VPWR VPWR _05576_ sky130_fd_sc_hd__nand2_1
XTAP_TAPCELL_ROW_24_492 VGND VPWR sky130_fd_sc_hd__tapvpwrvgnd_1
XFILLER_0_51_320 VGND VGND VPWR VPWR sky130_fd_sc_hd__decap_3
X_10627_ _04040_ _04365_ VGND VGND VPWR VPWR _04532_ sky130_fd_sc_hd__nand2b_1
XFILLER_0_11_206 VGND VGND VPWR VPWR sky130_fd_sc_hd__fill_2
X_10558_ _04459_ _04462_ VGND VGND VPWR VPWR _04463_ sky130_fd_sc_hd__or2_1
X_12228_ _05141_ _04969_ _05881_ VGND VGND VPWR VPWR _06018_ sky130_fd_sc_hd__a21o_1
X_10489_ _04391_ VGND VGND VPWR VPWR _04395_ sky130_fd_sc_hd__inv_2
XFILLER_0_75_46 VGND VGND VPWR VPWR sky130_fd_sc_hd__decap_8
X_12159_ _05960_ _05961_ VGND VGND VPWR VPWR _05962_ sky130_fd_sc_hd__nand2_1
XFILLER_0_75_57 VPWR VGND VPWR VGND sky130_ef_sc_hd__decap_12
X_06720_ result_reg_Lshift\[5\] VGND VGND VPWR VPWR _00850_ sky130_fd_sc_hd__inv_2